Questionable use of curly braces in ".model sir870adp vdmos(rg=3 vto=2.9 rd=3.2m rs=1.5m rb={m} kp=100 mtriode=1.85 cgdmax=1.4n cgdmin=70p cgs=2.9n cjo=3.6n m=.4 a=.7 vj=.7 lambda=20m is=3p ksubthres=.08 mfg=siliconix vds=100 ron=5.5m qg=53.5n)"
    Error: undefined symbol in: "[m]"
Circuit: * C:\Users\Depes Crystalline\Desktop\school\Active_Bike_Lighting_System\Proof_of_Concepts\BacktoBack_FET_PoC.asc

Direct Newton iteration for .op point succeeded.
Heightened Def Con from 0.93 to 0.93

Date: Mon Oct 31 19:40:49 2016
Total elapsed time: 4.711 seconds.

tnom = 27
temp = 27
method = modified trap
totiter = 290868
traniter = 290836
tranpoints = 78261
accept = 63718
rejected = 14544
matrix size = 24
fillins = 8
solver = Normal
Matrix Compiler1: 1.86 KB object code size  0.9/0.3/[0.2]
Matrix Compiler2: 2.12 KB object code size  0.4/0.5/[0.4]


