Circuit: * C:\Users\Depes Crystalline\Desktop\school\Active_Bike_Lighting_System\Proof_of_Concepts\Battery_Pack_Rearrangement_w_Charger.asc

Direct Newton iteration for .op point succeeded.
Heightened Def Con from 7.55791e-010 to 1.2e-009

Date: Tue Nov 08 13:56:26 2016
Total elapsed time: 0.159 seconds.

tnom = 27
temp = 27
method = modified trap
totiter = 2536
traniter = 2523
tranpoints = 1157
accept = 1119
rejected = 39
matrix size = 9
fillins = 0
solver = Normal
Matrix Compiler1: 412 bytes object code size  0.3/0.1/[0.0]
Matrix Compiler2: 593 bytes object code size  0.1/0.2/[0.1]


