Circuit: * C:\Users\Depes Crystalline\Desktop\school\Active_Bike_Lighting_System\Proof_of_Concepts\Battery_Pack_Rearrangement.asc

Direct Newton iteration for .op point succeeded.

Date: Tue Nov 08 11:53:48 2016
Total elapsed time: 0.048 seconds.

tnom = 27
temp = 27
method = modified trap
totiter = 2177
traniter = 2173
tranpoints = 1086
accept = 1075
rejected = 11
matrix size = 6
fillins = 0
solver = Normal
Matrix Compiler1:      15 opcodes  0.2/[0.0]/0.1
Matrix Compiler2: 374 bytes object code size  0.1/0.1/[0.0]


