Questionable use of curly braces in ".model sir870adp vdmos(rg=3 vto=2.9 rd=3.2m rs=1.5m rb={m} kp=100 mtriode=1.85 cgdmax=1.4n cgdmin=70p cgs=2.9n cjo=3.6n m=.4 a=.7 vj=.7 lambda=20m is=3p ksubthres=.08 mfg=siliconix vds=100 ron=5.5m qg=53.5n)"
    Error: undefined symbol in: "[m]"
Circuit: * C:\Users\Depes Crystalline\Desktop\school\Active_Bike_Lighting_System\Proof_of_Concepts\Battery_Pack_Rearrangement_FET.asc

Direct Newton iteration for .op point succeeded.

Date: Tue Nov 08 11:51:20 2016
Total elapsed time: 0.136 seconds.

tnom = 27
temp = 27
method = modified trap
totiter = 5774
traniter = 5737
tranpoints = 1941
accept = 1688
rejected = 253
matrix size = 42
fillins = 32
solver = Normal
Matrix Compiler1: 4.58 KB object code size  2.2/0.6/[0.4]
Matrix Compiler2: 4.25 KB object code size  0.6/0.8/[0.7]


