Questionable use of curly braces in ".model sir870adp vdmos(rg=3 vto=2.9 rd=3.2m rs=1.5m rb={m} kp=100 mtriode=1.85 cgdmax=1.4n cgdmin=70p cgs=2.9n cjo=3.6n m=.4 a=.7 vj=.7 lambda=20m is=3p ksubthres=.08 mfg=siliconix vds=100 ron=5.5m qg=53.5n)"
    Error: undefined symbol in: "[m]"
Circuit: * C:\Users\Depes Crystalline\Desktop\school\Active_Bike_Lighting_System\Proof_of_Concepts\SingleFET_v_BacktoBackFET_switches.asc

Direct Newton iteration for .op point succeeded.

Date: Mon Oct 31 19:58:01 2016
Total elapsed time: 0.116 seconds.

tnom = 27
temp = 27
method = modified trap
totiter = 6105
traniter = 6099
tranpoints = 1959
accept = 1699
rejected = 260
matrix size = 29
fillins = 12
solver = Normal
Matrix Compiler1: 2.15 KB object code size  0.9/0.4/[0.2]
Matrix Compiler2: 2.43 KB object code size  0.3/0.5/[0.2]


